/*--------------------------------------------------------------------*\
|                                                                      |
|    File exported from Salome Platform using SalomeToFoamExporter     |
|    Keep up to date: https://github.com/nicolasedh/salomeToOpenFOAM   |
|                                                                      |
\*--------------------------------------------------------------------*/
FoamFile
{
	version		2.0;
	format		ascii;
	class		polyBoundaryMesh;
	location	"constant/polyMesh";
	object		boundary;
}

3
(
	outlet
	{
	type		wall;
	nFaces		453;
	startFace	218544;
	}
	inlet
	{
	type		wall;
	nFaces		9174;
	startFace	218997;
	}
	walls
	{
	type		wall;
	nFaces		31017;
	startFace	228171;
	}
)
